07_CYME/Bellhaven 12-04 - 8-14 loads.xst (original).sxst_DSS/Loads.dss
New Load.258851432_1 Phases=1 Bus1=258851432.1 kV=7.2000 kW=0.00204648 kVAR=0.00031398 status=variable Vminpu=0.7 yearly=LS_PhaseA daily=LS_PhaseA duty=LS_PhaseA
New Load.258839953_3 Phases=1 Bus1=258839953.3 kV=7.2000 kW=0.00075394 kVAR=0.00006996 status=variable Vminpu=0.7 yearly=LS_PhaseC daily=LS_PhaseC duty=LS_PhaseC
New Load.258851160_1 Phases=1 Bus1=258851160.1 kV=7.2000 kW=0.00204648 kVAR=0.00031398 status=variable Vminpu=0.7 yearly=LS_PhaseA daily=LS_PhaseA duty=LS_PhaseA
New Load.258840397_1 Phases=1 Bus1=258840397.1 kV=7.2000 kW=0.00306971 kVAR=0.00047097 status=variable Vminpu=0.7 yearly=LS_PhaseA daily=LS_PhaseA duty=LS_PhaseA
New Load.258840397_2 Phases=1 Bus1=258840397.2 kV=7.2000 kW=0.00252022 kVAR=0.00051749 status=variable Vminpu=0.7 yearly=LS_PhaseB daily=LS_PhaseB duty=LS_PhaseB
New Load.258840397_3 Phases=1 Bus1=258840397.3 kV=7.2000 kW=0.00282726 kVAR=0.00026235 status=variable Vminpu=0.7 yearly=LS_PhaseC daily=LS_PhaseC duty=LS_PhaseC
New Load.260972091_1 Phases=1 Bus1=260972091.1 kV=7.2000 kW=0.00818590 kVAR=0.00125591 status=variable Vminpu=0.7 yearly=LS_PhaseA daily=LS_PhaseA duty=LS_PhaseA
New Load.258851217_3 Phases=1 Bus1=258851217.3 kV=7.2000 kW=0.00188484 kVAR=0.00017490 status=variable Vminpu=0.7 yearly=LS_PhaseC daily=LS_PhaseC duty=LS_PhaseC
New Load.259004984_3 Phases=1 Bus1=259004984.3 kV=7.2000 kW=0.00376968 kVAR=0.00034981 status=variable Vminpu=0.7 yearly=LS_PhaseC daily=LS_PhaseC duty=LS_PhaseC
New Load.258840484_3 Phases=1 Bus1=258840484.3 kV=7.2000 kW=0.00188484 kVAR=0.00017490 status=variable Vminpu=0.7 yearly=LS_PhaseC daily=LS_PhaseC duty=LS_PhaseC
New Load.258851034_1 Phases=1 Bus1=258851034.1 kV=7.2000 kW=0.00409295 kVAR=0.00062795 status=variable Vminpu=0.7 yearly=LS_PhaseA daily=LS_PhaseA duty=LS_PhaseA
New Load.258851034_2 Phases=1 Bus1=258851034.2 kV=7.2000 kW=0.00336030 kVAR=0.00068998 status=variable Vminpu=0.7 yearly=LS_PhaseB daily=LS_PhaseB duty=LS_PhaseB
New Load.258851034_3 Phases=1 Bus1=258851034.3 kV=7.2000 kW=0.00376968 kVAR=0.00034981 status=variable Vminpu=0.7 yearly=LS_PhaseC daily=LS_PhaseC duty=LS_PhaseC
New Load.260745427_3 Phases=1 Bus1=260745427.3 kV=7.2000 kW=0.00565452 kVAR=0.00052471 status=variable Vminpu=0.7 yearly=LS_PhaseC daily=LS_PhaseC duty=LS_PhaseC
New Load.258839926_1 Phases=1 Bus1=258839926.1 kV=7.2000 kW=0.00204648 kVAR=0.00031398 status=variable Vminpu=0.7 yearly=LS_PhaseA daily=LS_PhaseA duty=LS_PhaseA
New Load.259005051_2 Phases=1 Bus1=259005051.2 kV=7.2000 kW=0.00067206 kVAR=0.00013800 status=variable Vminpu=0.7 yearly=LS_PhaseB daily=LS_PhaseB duty=LS_PhaseB
New Load.260784230_1 Phases=1 Bus1=260784230.1 kV=7.2000 kW=0.00409295 kVAR=0.00062795 status=variable Vminpu=0.7 yearly=LS_PhaseA daily=LS_PhaseA duty=LS_PhaseA
New Load.260784230_2 Phases=1 Bus1=260784230.2 kV=7.2000 kW=0.00336030 kVAR=0.00068998 status=variable Vminpu=0.7 yearly=LS_PhaseB daily=LS_PhaseB duty=LS_PhaseB
New Load.260784230_3 Phases=1 Bus1=260784230.3 kV=7.2000 kW=0.00376968 kVAR=0.00034981 status=variable Vminpu=0.7 yearly=LS_PhaseC daily=LS_PhaseC duty=LS_PhaseC
New Load.258840122_2 Phases=1 Bus1=258840122.2 kV=7.2000 kW=0.00168015 kVAR=0.00034499 status=variable Vminpu=0.7 yearly=LS_PhaseB daily=LS_PhaseB duty=LS_PhaseB
New Load.472684080_1 Phases=1 Bus1=472684080.1 kV=7.2000 kW=0.00000000 kVAR=0.00000000 status=variable Vminpu=0.7 yearly=LS_PhaseA daily=LS_PhaseA duty=LS_PhaseA
New Load.472684080_2 Phases=1 Bus1=472684080.2 kV=7.2000 kW=0.00000000 kVAR=0.00000000 status=variable Vminpu=0.7 yearly=LS_PhaseB daily=LS_PhaseB duty=LS_PhaseB
New Load.472684080_3 Phases=1 Bus1=472684080.3 kV=7.2000 kW=0.00000000 kVAR=0.00000000 status=variable Vminpu=0.7 yearly=LS_PhaseC daily=LS_PhaseC duty=LS_PhaseC
New Load.258839985_1 Phases=1 Bus1=258839985.1 kV=7.2000 kW=0.00204648 kVAR=0.00031398 status=variable Vminpu=0.7 yearly=LS_PhaseA daily=LS_PhaseA duty=LS_PhaseA
New Load.258839985_2 Phases=1 Bus1=258839985.2 kV=7.2000 kW=0.00168015 kVAR=0.00034499 status=variable Vminpu=0.7 yearly=LS_PhaseB daily=LS_PhaseB duty=LS_PhaseB
New Load.258839985_3 Phases=1 Bus1=258839985.3 kV=7.2000 kW=0.00188484 kVAR=0.00017490 status=variable Vminpu=0.7 yearly=LS_PhaseC daily=LS_PhaseC duty=LS_PhaseC
New Load.260745487_1 Phases=1 Bus1=260745487.1 kV=7.2000 kW=0.00276203 kVAR=0.00396177 status=variable Vminpu=0.7 yearly=LS_PhaseA daily=LS_PhaseA duty=LS_PhaseA
New Load.260745487_2 Phases=1 Bus1=260745487.2 kV=7.2000 kW=0.00305924 kVAR=0.00394923 status=variable Vminpu=0.7 yearly=LS_PhaseB daily=LS_PhaseB duty=LS_PhaseB
New Load.260745487_3 Phases=1 Bus1=260745487.3 kV=7.2000 kW=0.00266285 kVAR=0.00403849 status=variable Vminpu=0.7 yearly=LS_PhaseC daily=LS_PhaseC duty=LS_PhaseC
New Load.259121515_1 Phases=1 Bus1=259121515.1 kV=7.2000 kW=0.00122789 kVAR=0.00018839 status=variable Vminpu=0.7 yearly=LS_PhaseA daily=LS_PhaseA duty=LS_PhaseA
New Load.259121515_2 Phases=1 Bus1=259121515.2 kV=7.2000 kW=0.00100809 kVAR=0.00020700 status=variable Vminpu=0.7 yearly=LS_PhaseB daily=LS_PhaseB duty=LS_PhaseB
New Load.259121515_3 Phases=1 Bus1=259121515.3 kV=7.2000 kW=0.00113090 kVAR=0.00010494 status=variable Vminpu=0.7 yearly=LS_PhaseC daily=LS_PhaseC duty=LS_PhaseC
New Load.258840195_3 Phases=1 Bus1=258840195.3 kV=7.2000 kW=0.00376968 kVAR=0.00034981 status=variable Vminpu=0.7 yearly=LS_PhaseC daily=LS_PhaseC duty=LS_PhaseC
New Load.261124294_1 Phases=1 Bus1=261124294.1 kV=7.2000 kW=0.00409295 kVAR=0.00062795 status=variable Vminpu=0.7 yearly=LS_PhaseA daily=LS_PhaseA duty=LS_PhaseA
New Load.261124294_2 Phases=1 Bus1=261124294.2 kV=7.2000 kW=0.00336030 kVAR=0.00068998 status=variable Vminpu=0.7 yearly=LS_PhaseB daily=LS_PhaseB duty=LS_PhaseB
New Load.261124294_3 Phases=1 Bus1=261124294.3 kV=7.2000 kW=0.00376968 kVAR=0.00034981 status=variable Vminpu=0.7 yearly=LS_PhaseC daily=LS_PhaseC duty=LS_PhaseC
New Load.258851318_1 Phases=1 Bus1=258851318.1 kV=7.2000 kW=0.00613943 kVAR=0.00094193 status=variable Vminpu=0.7 yearly=LS_PhaseA daily=LS_PhaseA duty=LS_PhaseA
New Load.258851318_2 Phases=1 Bus1=258851318.2 kV=7.2000 kW=0.00504045 kVAR=0.00103498 status=variable Vminpu=0.7 yearly=LS_PhaseB daily=LS_PhaseB duty=LS_PhaseB
New Load.258851318_3 Phases=1 Bus1=258851318.3 kV=7.2000 kW=0.00565452 kVAR=0.00052471 status=variable Vminpu=0.7 yearly=LS_PhaseC daily=LS_PhaseC duty=LS_PhaseC
New Load.260784285_3 Phases=1 Bus1=260784285.3 kV=7.2000 kW=0.00376968 kVAR=0.00034981 status=variable Vminpu=0.7 yearly=LS_PhaseC daily=LS_PhaseC duty=LS_PhaseC
New Load.258840366_1 Phases=1 Bus1=258840366.1 kV=7.2000 kW=0.00204648 kVAR=0.00031398 status=variable Vminpu=0.7 yearly=LS_PhaseA daily=LS_PhaseA duty=LS_PhaseA
New Load.258840366_2 Phases=1 Bus1=258840366.2 kV=7.2000 kW=0.00168015 kVAR=0.00034499 status=variable Vminpu=0.7 yearly=LS_PhaseB daily=LS_PhaseB duty=LS_PhaseB
New Load.258840366_3 Phases=1 Bus1=258840366.3 kV=7.2000 kW=0.00188484 kVAR=0.00017490 status=variable Vminpu=0.7 yearly=LS_PhaseC daily=LS_PhaseC duty=LS_PhaseC
New Load.258850544_1 Phases=1 Bus1=258850544.1 kV=7.2000 kW=0.00081859 kVAR=0.00012559 status=variable Vminpu=0.7 yearly=LS_PhaseA daily=LS_PhaseA duty=LS_PhaseA
New Load.258850544_2 Phases=1 Bus1=258850544.2 kV=7.2000 kW=0.00067206 kVAR=0.00013800 status=variable Vminpu=0.7 yearly=LS_PhaseB daily=LS_PhaseB duty=LS_PhaseB
New Load.258850544_3 Phases=1 Bus1=258850544.3 kV=7.2000 kW=0.00075394 kVAR=0.00006996 status=variable Vminpu=0.7 yearly=LS_PhaseC daily=LS_PhaseC duty=LS_PhaseC
New Load.258851377_1 Phases=1 Bus1=258851377.1 kV=7.2000 kW=0.00204648 kVAR=0.00031398 status=variable Vminpu=0.7 yearly=LS_PhaseA daily=LS_PhaseA duty=LS_PhaseA
New Load.258839859_2 Phases=1 Bus1=258839859.2 kV=7.2000 kW=0.00168015 kVAR=0.00034499 status=variable Vminpu=0.7 yearly=LS_PhaseB daily=LS_PhaseB duty=LS_PhaseB
New Load.259357184_1 Phases=1 Bus1=259357184.1 kV=7.2000 kW=0.06249091 kVAR=0.08963513 status=variable Vminpu=0.7 yearly=LS_PhaseA daily=LS_PhaseA duty=LS_PhaseA
New Load.259357184_2 Phases=1 Bus1=259357184.2 kV=7.2000 kW=0.06921535 kVAR=0.08935144 status=variable Vminpu=0.7 yearly=LS_PhaseB daily=LS_PhaseB duty=LS_PhaseB
New Load.259357184_3 Phases=1 Bus1=259357184.3 kV=7.2000 kW=0.06024705 kVAR=0.09137087 status=variable Vminpu=0.7 yearly=LS_PhaseC daily=LS_PhaseC duty=LS_PhaseC
New Load.258840132_1 Phases=1 Bus1=258840132.1 kV=7.2000 kW=0.00204648 kVAR=0.00031398 status=variable Vminpu=0.7 yearly=LS_PhaseA daily=LS_PhaseA duty=LS_PhaseA
New Load.258840132_2 Phases=1 Bus1=258840132.2 kV=7.2000 kW=0.00168015 kVAR=0.00034499 status=variable Vminpu=0.7 yearly=LS_PhaseB daily=LS_PhaseB duty=LS_PhaseB
New Load.258840132_3 Phases=1 Bus1=258840132.3 kV=7.2000 kW=0.00188484 kVAR=0.00017490 status=variable Vminpu=0.7 yearly=LS_PhaseC daily=LS_PhaseC duty=LS_PhaseC
New Load.472683966_1 Phases=1 Bus1=472683966.1 kV=7.2000 kW=0.00000000 kVAR=0.00000000 status=variable Vminpu=0.7 yearly=LS_PhaseA daily=LS_PhaseA duty=LS_PhaseA
New Load.472683966_2 Phases=1 Bus1=472683966.2 kV=7.2000 kW=0.00000000 kVAR=0.00000000 status=variable Vminpu=0.7 yearly=LS_PhaseB daily=LS_PhaseB duty=LS_PhaseB
New Load.472683966_3 Phases=1 Bus1=472683966.3 kV=7.2000 kW=0.00000000 kVAR=0.00000000 status=variable Vminpu=0.7 yearly=LS_PhaseC daily=LS_PhaseC duty=LS_PhaseC
New Load.260745312_1 Phases=1 Bus1=260745312.1 kV=7.2000 kW=0.02596307 kVAR=0.03724067 status=variable Vminpu=0.7 yearly=LS_PhaseA daily=LS_PhaseA duty=LS_PhaseA
New Load.260745312_2 Phases=1 Bus1=260745312.2 kV=7.2000 kW=0.02875688 kVAR=0.03712281 status=variable Vminpu=0.7 yearly=LS_PhaseB daily=LS_PhaseB duty=LS_PhaseB
New Load.260745312_3 Phases=1 Bus1=260745312.3 kV=7.2000 kW=0.02503082 kVAR=0.03796182 status=variable Vminpu=0.7 yearly=LS_PhaseC daily=LS_PhaseC duty=LS_PhaseC
New Load.261002770_1 Phases=1 Bus1=261002770.1 kV=7.2000 kW=0.00409295 kVAR=0.00062795 status=variable Vminpu=0.7 yearly=LS_PhaseA daily=LS_PhaseA duty=LS_PhaseA
New Load.258840439_3 Phases=1 Bus1=258840439.3 kV=7.2000 kW=0.00188484 kVAR=0.00017490 status=variable Vminpu=0.7 yearly=LS_PhaseC daily=LS_PhaseC duty=LS_PhaseC
New Load.260972111_3 Phases=1 Bus1=260972111.3 kV=7.2000 kW=0.00376968 kVAR=0.00034981 status=variable Vminpu=0.7 yearly=LS_PhaseC daily=LS_PhaseC duty=LS_PhaseC
New Load.260972080_3 Phases=1 Bus1=260972080.3 kV=7.2000 kW=0.00753936 kVAR=0.00069961 status=variable Vminpu=0.7 yearly=LS_PhaseC daily=LS_PhaseC duty=LS_PhaseC
New Load.258850680_1 Phases=1 Bus1=258850680.1 kV=7.2000 kW=0.00081859 kVAR=0.00012559 status=variable Vminpu=0.7 yearly=LS_PhaseA daily=LS_PhaseA duty=LS_PhaseA
New Load.258850680_2 Phases=1 Bus1=258850680.2 kV=7.2000 kW=0.00067206 kVAR=0.00013800 status=variable Vminpu=0.7 yearly=LS_PhaseB daily=LS_PhaseB duty=LS_PhaseB
New Load.258850680_3 Phases=1 Bus1=258850680.3 kV=7.2000 kW=0.00075394 kVAR=0.00006996 status=variable Vminpu=0.7 yearly=LS_PhaseC daily=LS_PhaseC duty=LS_PhaseC
New Load.260745397_1 Phases=1 Bus1=260745397.1 kV=7.2000 kW=0.00721292 kVAR=0.01034601 status=variable Vminpu=0.7 yearly=LS_PhaseA daily=LS_PhaseA duty=LS_PhaseA
New Load.260745397_2 Phases=1 Bus1=260745397.2 kV=7.2000 kW=0.00798908 kVAR=0.01031326 status=variable Vminpu=0.7 yearly=LS_PhaseB daily=LS_PhaseB duty=LS_PhaseB
New Load.260745397_3 Phases=1 Bus1=260745397.3 kV=7.2000 kW=0.00695393 kVAR=0.01054635 status=variable Vminpu=0.7 yearly=LS_PhaseC daily=LS_PhaseC duty=LS_PhaseC
New Load.258850754_1 Phases=1 Bus1=258850754.1 kV=7.2000 kW=0.00613943 kVAR=0.00094193 status=variable Vminpu=0.7 yearly=LS_PhaseA daily=LS_PhaseA duty=LS_PhaseA
New Load.258850754_2 Phases=1 Bus1=258850754.2 kV=7.2000 kW=0.00504045 kVAR=0.00103498 status=variable Vminpu=0.7 yearly=LS_PhaseB daily=LS_PhaseB duty=LS_PhaseB
New Load.258850754_3 Phases=1 Bus1=258850754.3 kV=7.2000 kW=0.00565452 kVAR=0.00052471 status=variable Vminpu=0.7 yearly=LS_PhaseC daily=LS_PhaseC duty=LS_PhaseC
New Load.260784240_1 Phases=1 Bus1=260784240.1 kV=7.2000 kW=0.11738624 kVAR=0.16837538 status=variable Vminpu=0.7 yearly=LS_PhaseA daily=LS_PhaseA duty=LS_PhaseA
New Load.260784240_2 Phases=1 Bus1=260784240.2 kV=7.2000 kW=0.13001779 kVAR=0.16784249 status=variable Vminpu=0.7 yearly=LS_PhaseB daily=LS_PhaseB duty=LS_PhaseB
New Load.260784240_3 Phases=1 Bus1=260784240.3 kV=7.2000 kW=0.11317126 kVAR=0.17163589 status=variable Vminpu=0.7 yearly=LS_PhaseC daily=LS_PhaseC duty=LS_PhaseC
New Load.260972141_2 Phases=1 Bus1=260972141.2 kV=7.2000 kW=0.00336030 kVAR=0.00068998 status=variable Vminpu=0.7 yearly=LS_PhaseB daily=LS_PhaseB duty=LS_PhaseB
New Load.261002705_2 Phases=1 Bus1=261002705.2 kV=7.2000 kW=0.00336030 kVAR=0.00068998 status=variable Vminpu=0.7 yearly=LS_PhaseB daily=LS_PhaseB duty=LS_PhaseB
New Load.260745334_1 Phases=1 Bus1=260745334.1 kV=7.2000 kW=0.00000000 kVAR=0.00000000 status=variable Vminpu=0.7 yearly=LS_PhaseA daily=LS_PhaseA duty=LS_PhaseA
New Load.260745334_2 Phases=1 Bus1=260745334.2 kV=7.2000 kW=0.00000000 kVAR=0.00000000 status=variable Vminpu=0.7 yearly=LS_PhaseB daily=LS_PhaseB duty=LS_PhaseB
New Load.260745334_3 Phases=1 Bus1=260745334.3 kV=7.2000 kW=0.00000000 kVAR=0.00000000 status=variable Vminpu=0.7 yearly=LS_PhaseC daily=LS_PhaseC duty=LS_PhaseC
New Load.258840383_1 Phases=1 Bus1=258840383.1 kV=7.2000 kW=0.00409295 kVAR=0.00062795 status=variable Vminpu=0.7 yearly=LS_PhaseA daily=LS_PhaseA duty=LS_PhaseA
New Load.258851365_1 Phases=1 Bus1=258851365.1 kV=7.2000 kW=0.00409295 kVAR=0.00062795 status=variable Vminpu=0.7 yearly=LS_PhaseA daily=LS_PhaseA duty=LS_PhaseA
New Load.260784310_3 Phases=1 Bus1=260784310.3 kV=7.2000 kW=0.00376968 kVAR=0.00034981 status=variable Vminpu=0.7 yearly=LS_PhaseC daily=LS_PhaseC duty=LS_PhaseC
New Load.258850581_1 Phases=1 Bus1=258850581.1 kV=7.2000 kW=0.00204648 kVAR=0.00031398 status=variable Vminpu=0.7 yearly=LS_PhaseA daily=LS_PhaseA duty=LS_PhaseA
New Load.258850581_2 Phases=1 Bus1=258850581.2 kV=7.2000 kW=0.00168015 kVAR=0.00034499 status=variable Vminpu=0.7 yearly=LS_PhaseB daily=LS_PhaseB duty=LS_PhaseB
New Load.258850581_3 Phases=1 Bus1=258850581.3 kV=7.2000 kW=0.00188484 kVAR=0.00017490 status=variable Vminpu=0.7 yearly=LS_PhaseC daily=LS_PhaseC duty=LS_PhaseC
New Load.261124314_1 Phases=1 Bus1=261124314.1 kV=7.2000 kW=0.00000000 kVAR=0.00000000 status=variable Vminpu=0.7 yearly=LS_PhaseA daily=LS_PhaseA duty=LS_PhaseA
New Load.261124314_2 Phases=1 Bus1=261124314.2 kV=7.2000 kW=0.00000000 kVAR=0.00000000 status=variable Vminpu=0.7 yearly=LS_PhaseB daily=LS_PhaseB duty=LS_PhaseB
New Load.261124314_3 Phases=1 Bus1=261124314.3 kV=7.2000 kW=0.00000000 kVAR=0.00000000 status=variable Vminpu=0.7 yearly=LS_PhaseC daily=LS_PhaseC duty=LS_PhaseC
New Load.260745402_1 Phases=1 Bus1=260745402.1 kV=7.2000 kW=0.02908762 kVAR=0.04172243 status=variable Vminpu=0.7 yearly=LS_PhaseA daily=LS_PhaseA duty=LS_PhaseA
New Load.260745402_2 Phases=1 Bus1=260745402.2 kV=7.2000 kW=0.03221764 kVAR=0.04159038 status=variable Vminpu=0.7 yearly=LS_PhaseB daily=LS_PhaseB duty=LS_PhaseB
New Load.260745402_3 Phases=1 Bus1=260745402.3 kV=7.2000 kW=0.02804317 kVAR=0.04253036 status=variable Vminpu=0.7 yearly=LS_PhaseC daily=LS_PhaseC duty=LS_PhaseC
New Load.258851244_3 Phases=1 Bus1=258851244.3 kV=7.2000 kW=0.00188484 kVAR=0.00017490 status=variable Vminpu=0.7 yearly=LS_PhaseC daily=LS_PhaseC duty=LS_PhaseC
New Load.260745494_1 Phases=1 Bus1=260745494.1 kV=7.2000 kW=0.01918172 kVAR=0.02751369 status=variable Vminpu=0.7 yearly=LS_PhaseA daily=LS_PhaseA duty=LS_PhaseA
New Load.260745494_2 Phases=1 Bus1=260745494.2 kV=7.2000 kW=0.02124580 kVAR=0.02742661 status=variable Vminpu=0.7 yearly=LS_PhaseB daily=LS_PhaseB duty=LS_PhaseB
New Load.260745494_3 Phases=1 Bus1=260745494.3 kV=7.2000 kW=0.01849296 kVAR=0.02804648 status=variable Vminpu=0.7 yearly=LS_PhaseC daily=LS_PhaseC duty=LS_PhaseC
New Load.260972105_1 Phases=1 Bus1=260972105.1 kV=7.2000 kW=0.00818590 kVAR=0.00125591 status=variable Vminpu=0.7 yearly=LS_PhaseA daily=LS_PhaseA duty=LS_PhaseA
New Load.258851009_1 Phases=1 Bus1=258851009.1 kV=7.2000 kW=0.00409295 kVAR=0.00062795 status=variable Vminpu=0.7 yearly=LS_PhaseA daily=LS_PhaseA duty=LS_PhaseA
New Load.258851009_2 Phases=1 Bus1=258851009.2 kV=7.2000 kW=0.00336030 kVAR=0.00068998 status=variable Vminpu=0.7 yearly=LS_PhaseB daily=LS_PhaseB duty=LS_PhaseB
New Load.258851009_3 Phases=1 Bus1=258851009.3 kV=7.2000 kW=0.00376968 kVAR=0.00034981 status=variable Vminpu=0.7 yearly=LS_PhaseC daily=LS_PhaseC duty=LS_PhaseC
New Load.261123019_1 Phases=1 Bus1=261123019.1 kV=7.2000 kW=0.00409295 kVAR=0.00062795 status=variable Vminpu=0.7 yearly=LS_PhaseA daily=LS_PhaseA duty=LS_PhaseA
New Load.261123019_2 Phases=1 Bus1=261123019.2 kV=7.2000 kW=0.00336030 kVAR=0.00068998 status=variable Vminpu=0.7 yearly=LS_PhaseB daily=LS_PhaseB duty=LS_PhaseB
New Load.261123019_3 Phases=1 Bus1=261123019.3 kV=7.2000 kW=0.00376968 kVAR=0.00034981 status=variable Vminpu=0.7 yearly=LS_PhaseC daily=LS_PhaseC duty=LS_PhaseC
New Load.258851283_1 Phases=1 Bus1=258851283.1 kV=7.2000 kW=0.00204648 kVAR=0.00031398 status=variable Vminpu=0.7 yearly=LS_PhaseA daily=LS_PhaseA duty=LS_PhaseA
New Load.258851283_2 Phases=1 Bus1=258851283.2 kV=7.2000 kW=0.00168015 kVAR=0.00034499 status=variable Vminpu=0.7 yearly=LS_PhaseB daily=LS_PhaseB duty=LS_PhaseB
New Load.258851283_3 Phases=1 Bus1=258851283.3 kV=7.2000 kW=0.00188484 kVAR=0.00017490 status=variable Vminpu=0.7 yearly=LS_PhaseC daily=LS_PhaseC duty=LS_PhaseC
New Load.259005104_3 Phases=1 Bus1=259005104.3 kV=7.2000 kW=0.00188484 kVAR=0.00017490 status=variable Vminpu=0.7 yearly=LS_PhaseC daily=LS_PhaseC duty=LS_PhaseC
New Load.258840005_2 Phases=1 Bus1=258840005.2 kV=7.2000 kW=0.00067206 kVAR=0.00013800 status=variable Vminpu=0.7 yearly=LS_PhaseB daily=LS_PhaseB duty=LS_PhaseB
New Load.258840398_3 Phases=1 Bus1=258840398.3 kV=7.2000 kW=0.00188484 kVAR=0.00017490 status=variable Vminpu=0.7 yearly=LS_PhaseC daily=LS_PhaseC duty=LS_PhaseC
New Load.261311161_1 Phases=1 Bus1=261311161.1 kV=7.2000 kW=0.08631341 kVAR=0.12380543 status=variable Vminpu=0.7 yearly=LS_PhaseA daily=LS_PhaseA duty=LS_PhaseA
New Load.261311161_2 Phases=1 Bus1=261311161.2 kV=7.2000 kW=0.09560131 kVAR=0.12341359 status=variable Vminpu=0.7 yearly=LS_PhaseB daily=LS_PhaseB duty=LS_PhaseB
New Load.261311161_3 Phases=1 Bus1=261311161.3 kV=7.2000 kW=0.08321416 kVAR=0.12620286 status=variable Vminpu=0.7 yearly=LS_PhaseC daily=LS_PhaseC duty=LS_PhaseC
New Load.258840017_1 Phases=1 Bus1=258840017.1 kV=7.2000 kW=0.00204648 kVAR=0.00031398 status=variable Vminpu=0.7 yearly=LS_PhaseA daily=LS_PhaseA duty=LS_PhaseA
New Load.260972090_1 Phases=1 Bus1=260972090.1 kV=7.2000 kW=0.00613943 kVAR=0.00094193 status=variable Vminpu=0.7 yearly=LS_PhaseA daily=LS_PhaseA duty=LS_PhaseA
New Load.258851108_2 Phases=1 Bus1=258851108.2 kV=7.2000 kW=0.00168015 kVAR=0.00034499 status=variable Vminpu=0.7 yearly=LS_PhaseB daily=LS_PhaseB duty=LS_PhaseB
New Load.260784260_3 Phases=1 Bus1=260784260.3 kV=7.2000 kW=0.00565452 kVAR=0.00052471 status=variable Vminpu=0.7 yearly=LS_PhaseC daily=LS_PhaseC duty=LS_PhaseC
New Load.258839854_3 Phases=1 Bus1=258839854.3 kV=7.2000 kW=0.00075394 kVAR=0.00006996 status=variable Vminpu=0.7 yearly=LS_PhaseC daily=LS_PhaseC duty=LS_PhaseC
New Load.258839854_1 Phases=1 Bus1=258839854.1 kV=7.2000 kW=0.00081859 kVAR=0.00012559 status=variable Vminpu=0.7 yearly=LS_PhaseA daily=LS_PhaseA duty=LS_PhaseA
New Load.258839854_2 Phases=1 Bus1=258839854.2 kV=7.2000 kW=0.00067206 kVAR=0.00013800 status=variable Vminpu=0.7 yearly=LS_PhaseB daily=LS_PhaseB duty=LS_PhaseB
New Load.258840262_3 Phases=1 Bus1=258840262.3 kV=7.2000 kW=0.00075394 kVAR=0.00006996 status=variable Vminpu=0.7 yearly=LS_PhaseC daily=LS_PhaseC duty=LS_PhaseC
New Load.258840302_2 Phases=1 Bus1=258840302.2 kV=7.2000 kW=0.00067206 kVAR=0.00013800 status=variable Vminpu=0.7 yearly=LS_PhaseB daily=LS_PhaseB duty=LS_PhaseB
New Load.258850715_2 Phases=1 Bus1=258850715.2 kV=7.2000 kW=0.00067206 kVAR=0.00013800 status=variable Vminpu=0.7 yearly=LS_PhaseB daily=LS_PhaseB duty=LS_PhaseB
New Load.258840413_3 Phases=1 Bus1=258840413.3 kV=7.2000 kW=0.00188484 kVAR=0.00017490 status=variable Vminpu=0.7 yearly=LS_PhaseC daily=LS_PhaseC duty=LS_PhaseC
New Load.259121514_3 Phases=1 Bus1=259121514.3 kV=7.2000 kW=0.00188484 kVAR=0.00017490 status=variable Vminpu=0.7 yearly=LS_PhaseC daily=LS_PhaseC duty=LS_PhaseC
New Load.258851273_1 Phases=1 Bus1=258851273.1 kV=7.2000 kW=0.00409295 kVAR=0.00062795 status=variable Vminpu=0.7 yearly=LS_PhaseA daily=LS_PhaseA duty=LS_PhaseA
New Load.258851273_2 Phases=1 Bus1=258851273.2 kV=7.2000 kW=0.00336030 kVAR=0.00068998 status=variable Vminpu=0.7 yearly=LS_PhaseB daily=LS_PhaseB duty=LS_PhaseB
New Load.258851273_3 Phases=1 Bus1=258851273.3 kV=7.2000 kW=0.00376968 kVAR=0.00034981 status=variable Vminpu=0.7 yearly=LS_PhaseC daily=LS_PhaseC duty=LS_PhaseC
New Load.261124288_1 Phases=1 Bus1=261124288.1 kV=7.2000 kW=0.00000000 kVAR=0.00000000 status=variable Vminpu=0.7 yearly=LS_PhaseA daily=LS_PhaseA duty=LS_PhaseA
New Load.261124288_2 Phases=1 Bus1=261124288.2 kV=7.2000 kW=0.00000000 kVAR=0.00000000 status=variable Vminpu=0.7 yearly=LS_PhaseB daily=LS_PhaseB duty=LS_PhaseB
New Load.261124288_3 Phases=1 Bus1=261124288.3 kV=7.2000 kW=0.00000000 kVAR=0.00000000 status=variable Vminpu=0.7 yearly=LS_PhaseC daily=LS_PhaseC duty=LS_PhaseC
New Load.261002695_1 Phases=1 Bus1=261002695.1 kV=7.2000 kW=0.00409295 kVAR=0.00062795 status=variable Vminpu=0.7 yearly=LS_PhaseA daily=LS_PhaseA duty=LS_PhaseA
New Load.260745412_1 Phases=1 Bus1=260745412.1 kV=7.2000 kW=0.00409295 kVAR=0.00062795 status=variable Vminpu=0.7 yearly=LS_PhaseA daily=LS_PhaseA duty=LS_PhaseA
New Load.261031178_2 Phases=1 Bus1=261031178.2 kV=7.2000 kW=0.00336030 kVAR=0.00068998 status=variable Vminpu=0.7 yearly=LS_PhaseB daily=LS_PhaseB duty=LS_PhaseB
New Load.261002700_1 Phases=1 Bus1=261002700.1 kV=7.2000 kW=0.00204648 kVAR=0.00031398 status=variable Vminpu=0.7 yearly=LS_PhaseA daily=LS_PhaseA duty=LS_PhaseA
New Load.261031173_2 Phases=1 Bus1=261031173.2 kV=7.2000 kW=0.00336030 kVAR=0.00068998 status=variable Vminpu=0.7 yearly=LS_PhaseB daily=LS_PhaseB duty=LS_PhaseB
New Load.258840516_3 Phases=1 Bus1=258840516.3 kV=7.2000 kW=0.00113090 kVAR=0.00010494 status=variable Vminpu=0.7 yearly=LS_PhaseC daily=LS_PhaseC duty=LS_PhaseC
New Load.258851150_1 Phases=1 Bus1=258851150.1 kV=7.2000 kW=0.00204648 kVAR=0.00031398 status=variable Vminpu=0.7 yearly=LS_PhaseA daily=LS_PhaseA duty=LS_PhaseA
New Load.258851138_3 Phases=1 Bus1=258851138.3 kV=7.2000 kW=0.00188484 kVAR=0.00017490 status=variable Vminpu=0.7 yearly=LS_PhaseC daily=LS_PhaseC duty=LS_PhaseC
New Load.258851039_2 Phases=1 Bus1=258851039.2 kV=7.2000 kW=0.00100809 kVAR=0.00020700 status=variable Vminpu=0.7 yearly=LS_PhaseB daily=LS_PhaseB duty=LS_PhaseB
New Load.258850770_1 Phases=1 Bus1=258850770.1 kV=7.2000 kW=0.00409295 kVAR=0.00062795 status=variable Vminpu=0.7 yearly=LS_PhaseA daily=LS_PhaseA duty=LS_PhaseA
New Load.258850770_2 Phases=1 Bus1=258850770.2 kV=7.2000 kW=0.00336030 kVAR=0.00068998 status=variable Vminpu=0.7 yearly=LS_PhaseB daily=LS_PhaseB duty=LS_PhaseB
New Load.258850770_3 Phases=1 Bus1=258850770.3 kV=7.2000 kW=0.00376968 kVAR=0.00034981 status=variable Vminpu=0.7 yearly=LS_PhaseC daily=LS_PhaseC duty=LS_PhaseC
New Load.258850934_2 Phases=1 Bus1=258850934.2 kV=7.2000 kW=0.02387802 kVAR=0.03082460 status=variable Vminpu=0.7 yearly=LS_PhaseB daily=LS_PhaseB duty=LS_PhaseB
New Load.258850934_3 Phases=1 Bus1=258850934.3 kV=7.2000 kW=0.02078412 kVAR=0.03152127 status=variable Vminpu=0.7 yearly=LS_PhaseC daily=LS_PhaseC duty=LS_PhaseC
New Load.258850934_1 Phases=1 Bus1=258850934.1 kV=7.2000 kW=0.02155821 kVAR=0.03092247 status=variable Vminpu=0.7 yearly=LS_PhaseA daily=LS_PhaseA duty=LS_PhaseA
New Load.258851466_1 Phases=1 Bus1=258851466.1 kV=7.2000 kW=0.01611184 kVAR=0.02311035 status=variable Vminpu=0.7 yearly=LS_PhaseA daily=LS_PhaseA duty=LS_PhaseA
New Load.258851466_2 Phases=1 Bus1=258851466.2 kV=7.2000 kW=0.01784558 kVAR=0.02303720 status=variable Vminpu=0.7 yearly=LS_PhaseB daily=LS_PhaseB duty=LS_PhaseB
New Load.258851466_3 Phases=1 Bus1=258851466.3 kV=7.2000 kW=0.01553331 kVAR=0.02355787 status=variable Vminpu=0.7 yearly=LS_PhaseC daily=LS_PhaseC duty=LS_PhaseC
New Load.259005046_2 Phases=1 Bus1=259005046.2 kV=7.2000 kW=0.00336030 kVAR=0.00068998 status=variable Vminpu=0.7 yearly=LS_PhaseB daily=LS_PhaseB duty=LS_PhaseB
New Load.260784275_3 Phases=1 Bus1=260784275.3 kV=7.2000 kW=0.00376968 kVAR=0.00034981 status=variable Vminpu=0.7 yearly=LS_PhaseC daily=LS_PhaseC duty=LS_PhaseC
New Load.260745387_1 Phases=1 Bus1=260745387.1 kV=7.2000 kW=0.00613943 kVAR=0.00094193 status=variable Vminpu=0.7 yearly=LS_PhaseA daily=LS_PhaseA duty=LS_PhaseA
New Load.260745387_2 Phases=1 Bus1=260745387.2 kV=7.2000 kW=0.00504045 kVAR=0.00103498 status=variable Vminpu=0.7 yearly=LS_PhaseB daily=LS_PhaseB duty=LS_PhaseB
New Load.260745387_3 Phases=1 Bus1=260745387.3 kV=7.2000 kW=0.00565452 kVAR=0.00052471 status=variable Vminpu=0.7 yearly=LS_PhaseC daily=LS_PhaseC duty=LS_PhaseC
New Load.260745447_1 Phases=1 Bus1=260745447.1 kV=7.2000 kW=0.00613943 kVAR=0.00094193 status=variable Vminpu=0.7 yearly=LS_PhaseA daily=LS_PhaseA duty=LS_PhaseA
New Load.261002756_1 Phases=1 Bus1=261002756.1 kV=7.2000 kW=0.00409295 kVAR=0.00062795 status=variable Vminpu=0.7 yearly=LS_PhaseA daily=LS_PhaseA duty=LS_PhaseA
New Load.258839943_1 Phases=1 Bus1=258839943.1 kV=7.2000 kW=0.00204648 kVAR=0.00031398 status=variable Vminpu=0.7 yearly=LS_PhaseA daily=LS_PhaseA duty=LS_PhaseA
New Load.258839943_2 Phases=1 Bus1=258839943.2 kV=7.2000 kW=0.00168015 kVAR=0.00034499 status=variable Vminpu=0.7 yearly=LS_PhaseB daily=LS_PhaseB duty=LS_PhaseB
New Load.258839943_3 Phases=1 Bus1=258839943.3 kV=7.2000 kW=0.00188484 kVAR=0.00017490 status=variable Vminpu=0.7 yearly=LS_PhaseC daily=LS_PhaseC duty=LS_PhaseC
New Load.259005021_2 Phases=1 Bus1=259005021.2 kV=7.2000 kW=0.00067206 kVAR=0.00013800 status=variable Vminpu=0.7 yearly=LS_PhaseB daily=LS_PhaseB duty=LS_PhaseB
New Load.259005031_1 Phases=1 Bus1=259005031.1 kV=7.2000 kW=0.00122789 kVAR=0.00018839 status=variable Vminpu=0.7 yearly=LS_PhaseA daily=LS_PhaseA duty=LS_PhaseA
New Load.259005031_2 Phases=1 Bus1=259005031.2 kV=7.2000 kW=0.00100809 kVAR=0.00020700 status=variable Vminpu=0.7 yearly=LS_PhaseB daily=LS_PhaseB duty=LS_PhaseB
New Load.259005031_3 Phases=1 Bus1=259005031.3 kV=7.2000 kW=0.00113090 kVAR=0.00010494 status=variable Vminpu=0.7 yearly=LS_PhaseC daily=LS_PhaseC duty=LS_PhaseC
New Load.258850660_1 Phases=1 Bus1=258850660.1 kV=7.2000 kW=0.00409295 kVAR=0.00062795 status=variable Vminpu=0.7 yearly=LS_PhaseA daily=LS_PhaseA duty=LS_PhaseA
New Load.258850660_2 Phases=1 Bus1=258850660.2 kV=7.2000 kW=0.00336030 kVAR=0.00068998 status=variable Vminpu=0.7 yearly=LS_PhaseB daily=LS_PhaseB duty=LS_PhaseB
New Load.258850660_3 Phases=1 Bus1=258850660.3 kV=7.2000 kW=0.00376968 kVAR=0.00034981 status=variable Vminpu=0.7 yearly=LS_PhaseC daily=LS_PhaseC duty=LS_PhaseC
New Load.258851348_3 Phases=1 Bus1=258851348.3 kV=7.2000 kW=0.00188484 kVAR=0.00017490 status=variable Vminpu=0.7 yearly=LS_PhaseC daily=LS_PhaseC duty=LS_PhaseC
New Load.258851059_2 Phases=1 Bus1=258851059.2 kV=7.2000 kW=0.00168015 kVAR=0.00034499 status=variable Vminpu=0.7 yearly=LS_PhaseB daily=LS_PhaseB duty=LS_PhaseB
New Load.260784245_3 Phases=1 Bus1=260784245.3 kV=7.2000 kW=0.00565452 kVAR=0.00052471 status=variable Vminpu=0.7 yearly=LS_PhaseC daily=LS_PhaseC duty=LS_PhaseC
New Load.260745462_2 Phases=1 Bus1=260745462.2 kV=7.2000 kW=0.00504045 kVAR=0.00103498 status=variable Vminpu=0.7 yearly=LS_PhaseB daily=LS_PhaseB duty=LS_PhaseB
New Load.260745417_3 Phases=1 Bus1=260745417.3 kV=7.2000 kW=0.00565452 kVAR=0.00052471 status=variable Vminpu=0.7 yearly=LS_PhaseC daily=LS_PhaseC duty=LS_PhaseC
New Load.260972100_2 Phases=1 Bus1=260972100.2 kV=7.2000 kW=0.00336030 kVAR=0.00068998 status=variable Vminpu=0.7 yearly=LS_PhaseB daily=LS_PhaseB duty=LS_PhaseB
New Load.258850953_1 Phases=1 Bus1=258850953.1 kV=7.2000 kW=0.00409295 kVAR=0.00062795 status=variable Vminpu=0.7 yearly=LS_PhaseA daily=LS_PhaseA duty=LS_PhaseA
New Load.258850953_2 Phases=1 Bus1=258850953.2 kV=7.2000 kW=0.00336030 kVAR=0.00068998 status=variable Vminpu=0.7 yearly=LS_PhaseB daily=LS_PhaseB duty=LS_PhaseB
New Load.258850953_3 Phases=1 Bus1=258850953.3 kV=7.2000 kW=0.00376968 kVAR=0.00034981 status=variable Vminpu=0.7 yearly=LS_PhaseC daily=LS_PhaseC duty=LS_PhaseC
New Load.258850775_1 Phases=1 Bus1=258850775.1 kV=7.2000 kW=0.00409295 kVAR=0.00062795 status=variable Vminpu=0.7 yearly=LS_PhaseA daily=LS_PhaseA duty=LS_PhaseA
New Load.258850775_2 Phases=1 Bus1=258850775.2 kV=7.2000 kW=0.00336030 kVAR=0.00068998 status=variable Vminpu=0.7 yearly=LS_PhaseB daily=LS_PhaseB duty=LS_PhaseB
New Load.258850775_3 Phases=1 Bus1=258850775.3 kV=7.2000 kW=0.00376968 kVAR=0.00034981 status=variable Vminpu=0.7 yearly=LS_PhaseC daily=LS_PhaseC duty=LS_PhaseC
New Load.258851113_2 Phases=1 Bus1=258851113.2 kV=7.2000 kW=0.00336030 kVAR=0.00068998 status=variable Vminpu=0.7 yearly=LS_PhaseB daily=LS_PhaseB duty=LS_PhaseB
New Load.261124309_1 Phases=1 Bus1=261124309.1 kV=7.2000 kW=0.00000000 kVAR=0.00000000 status=variable Vminpu=0.7 yearly=LS_PhaseA daily=LS_PhaseA duty=LS_PhaseA
New Load.261124309_2 Phases=1 Bus1=261124309.2 kV=7.2000 kW=0.00000000 kVAR=0.00000000 status=variable Vminpu=0.7 yearly=LS_PhaseB daily=LS_PhaseB duty=LS_PhaseB
New Load.261124309_3 Phases=1 Bus1=261124309.3 kV=7.2000 kW=0.00000000 kVAR=0.00000000 status=variable Vminpu=0.7 yearly=LS_PhaseC daily=LS_PhaseC duty=LS_PhaseC
New Load.260745407_1 Phases=1 Bus1=260745407.1 kV=7.2000 kW=0.00409295 kVAR=0.00062795 status=variable Vminpu=0.7 yearly=LS_PhaseA daily=LS_PhaseA duty=LS_PhaseA
New Load.260745407_2 Phases=1 Bus1=260745407.2 kV=7.2000 kW=0.00336030 kVAR=0.00068998 status=variable Vminpu=0.7 yearly=LS_PhaseB daily=LS_PhaseB duty=LS_PhaseB
New Load.260745407_3 Phases=1 Bus1=260745407.3 kV=7.2000 kW=0.00376968 kVAR=0.00034981 status=variable Vminpu=0.7 yearly=LS_PhaseC daily=LS_PhaseC duty=LS_PhaseC
New Load.260784300_3 Phases=1 Bus1=260784300.3 kV=7.2000 kW=0.00376968 kVAR=0.00034981 status=variable Vminpu=0.7 yearly=LS_PhaseC daily=LS_PhaseC duty=LS_PhaseC
New Load.259005065_2 Phases=1 Bus1=259005065.2 kV=7.2000 kW=0.00168015 kVAR=0.00034499 status=variable Vminpu=0.7 yearly=LS_PhaseB daily=LS_PhaseB duty=LS_PhaseB
New Load.260784305_3 Phases=1 Bus1=260784305.3 kV=7.2000 kW=0.00376968 kVAR=0.00034981 status=variable Vminpu=0.7 yearly=LS_PhaseC daily=LS_PhaseC duty=LS_PhaseC
New Load.261124323_1 Phases=1 Bus1=261124323.1 kV=7.2000 kW=0.00409295 kVAR=0.00062795 status=variable Vminpu=0.7 yearly=LS_PhaseA daily=LS_PhaseA duty=LS_PhaseA
New Load.261124323_2 Phases=1 Bus1=261124323.2 kV=7.2000 kW=0.00336030 kVAR=0.00068998 status=variable Vminpu=0.7 yearly=LS_PhaseB daily=LS_PhaseB duty=LS_PhaseB
New Load.261124323_3 Phases=1 Bus1=261124323.3 kV=7.2000 kW=0.00376968 kVAR=0.00034981 status=variable Vminpu=0.7 yearly=LS_PhaseC daily=LS_PhaseC duty=LS_PhaseC
New Load.259004980_2 Phases=1 Bus1=259004980.2 kV=7.2000 kW=0.00336030 kVAR=0.00068998 status=variable Vminpu=0.7 yearly=LS_PhaseB daily=LS_PhaseB duty=LS_PhaseB
New Load.259005002_1 Phases=1 Bus1=259005002.1 kV=7.2000 kW=0.00122789 kVAR=0.00018839 status=variable Vminpu=0.7 yearly=LS_PhaseA daily=LS_PhaseA duty=LS_PhaseA
New Load.258850549_1 Phases=1 Bus1=258850549.1 kV=7.2000 kW=0.00409295 kVAR=0.00062795 status=variable Vminpu=0.7 yearly=LS_PhaseA daily=LS_PhaseA duty=LS_PhaseA
New Load.258850549_2 Phases=1 Bus1=258850549.2 kV=7.2000 kW=0.00336030 kVAR=0.00068998 status=variable Vminpu=0.7 yearly=LS_PhaseB daily=LS_PhaseB duty=LS_PhaseB
New Load.258850549_3 Phases=1 Bus1=258850549.3 kV=7.2000 kW=0.00376968 kVAR=0.00034981 status=variable Vminpu=0.7 yearly=LS_PhaseC daily=LS_PhaseC duty=LS_PhaseC
New Load.258850924_1 Phases=1 Bus1=258850924.1 kV=7.2000 kW=0.00409295 kVAR=0.00062795 status=variable Vminpu=0.7 yearly=LS_PhaseA daily=LS_PhaseA duty=LS_PhaseA
New Load.258850924_2 Phases=1 Bus1=258850924.2 kV=7.2000 kW=0.00336030 kVAR=0.00068998 status=variable Vminpu=0.7 yearly=LS_PhaseB daily=LS_PhaseB duty=LS_PhaseB
New Load.258850924_3 Phases=1 Bus1=258850924.3 kV=7.2000 kW=0.00376968 kVAR=0.00034981 status=variable Vminpu=0.7 yearly=LS_PhaseC daily=LS_PhaseC duty=LS_PhaseC
New Load.258851422_1 Phases=1 Bus1=258851422.1 kV=7.2000 kW=0.00204648 kVAR=0.00031398 status=variable Vminpu=0.7 yearly=LS_PhaseA daily=LS_PhaseA duty=LS_PhaseA
...
